MODEL 1
REMARK VINA RESULT:      -8.4      0.000      0.000
REMARK  8 active torsions:
REMARK  status: ('A' for Active; 'I' for Inactive)
REMARK    1  A    between atoms: O_2  and  C_11 
REMARK    2  A    between atoms: O_3  and  C_12 
REMARK    3  A    between atoms: O_5  and  C_23 
REMARK    4  A    between atoms: C_8  and  C_13 
REMARK    5  A    between atoms: C_13  and  C_16 
REMARK    6  A    between atoms: C_18  and  C_19 
REMARK    7  A    between atoms: C_19  and  C_20 
REMARK    8  A    between atoms: C_20  and  C_23 
ROOT
HETATM    1  O   UNL     1     127.191 -49.833  -1.061  1.00  0.00    -0.313 OA
HETATM    2  O   UNL     1     127.273 -50.267   1.207  1.00  0.00    -0.259 OA
HETATM    3  C   UNL     1     128.207 -51.736  -1.806  1.00  0.00    -0.006 A 
HETATM    4  C   UNL     1     129.216 -53.885  -0.407  1.00  0.00     0.013 A 
HETATM    5  C   UNL     1     128.146 -51.781  -0.428  1.00  0.00     0.082 A 
HETATM    6  C   UNL     1     128.779 -52.774  -2.517  1.00  0.00    -0.018 A 
HETATM    7  C   UNL     1     129.290 -53.863  -1.803  1.00  0.00     0.084 A 
HETATM    8  C   UNL     1     128.642 -52.841   0.307  1.00  0.00     0.091 A 
HETATM    9  C   UNL     1     127.598 -50.484  -2.291  1.00  0.00     0.219 A 
HETATM   10  C   UNL     1     127.500 -50.570   0.053  1.00  0.00     0.297 A 
HETATM   11  C   UNL     1     128.844 -52.731  -4.006  1.00  0.00     0.052 C 
ENDROOT
BRANCH   4  12
HETATM   12  C   UNL     1     129.774 -55.072   0.343  1.00  0.00     0.072 C 
BRANCH  12  13
HETATM   13  C   UNL     1     128.697 -55.886   1.004  1.00  0.00    -0.020 C 
HETATM   14  C   UNL     1     128.525 -57.222   0.959  1.00  0.00    -0.087 C 
HETATM   15  C   UNL     1     129.480 -58.082   0.174  1.00  0.00     0.043 C 
BRANCH  14  16
HETATM   16  C   UNL     1     127.395 -57.968   1.631  1.00  0.00     0.044 C 
BRANCH  16  17
HETATM   17  C   UNL     1     127.892 -59.176   2.427  1.00  0.00     0.114 C 
BRANCH  17  18
HETATM   18  C   UNL     1     128.000 -58.873   3.904  1.00  0.00     0.139 C 
HETATM   19  O   UNL     1     128.775 -59.408   4.684  1.00  0.00    -0.650 OA
BRANCH  18  20
HETATM   20  O   UNL     1     127.117 -57.910   4.279  1.00  0.00    -0.776 OA
HETATM   21  H   UNL     1     126.258 -58.291   4.560  1.00  0.00     0.167 HD
ENDBRANCH  18  20
ENDBRANCH  17  18
ENDBRANCH  16  17
ENDBRANCH  14  16
ENDBRANCH  12  13
ENDBRANCH   4  12
BRANCH   7  22
HETATM   22  O   UNL     1     129.860 -54.905  -2.477  1.00  0.00    -0.355 OA
HETATM   23  C   UNL     1     128.993 -55.956  -2.891  1.00  0.00     0.210 C 
ENDBRANCH   7  22
BRANCH   8  24
HETATM   24  O   UNL     1     128.568 -52.859   1.662  1.00  0.00    -0.359 OA
HETATM   25  H   UNL     1     129.431 -53.109   2.030  1.00  0.00     0.217 HD
ENDBRANCH   8  24
TORSDOF 8
ENDMDL
MODEL 2
REMARK VINA RESULT:      -8.4      2.093      7.464
REMARK  8 active torsions:
REMARK  status: ('A' for Active; 'I' for Inactive)
REMARK    1  A    between atoms: O_2  and  C_11 
REMARK    2  A    between atoms: O_3  and  C_12 
REMARK    3  A    between atoms: O_5  and  C_23 
REMARK    4  A    between atoms: C_8  and  C_13 
REMARK    5  A    between atoms: C_13  and  C_16 
REMARK    6  A    between atoms: C_18  and  C_19 
REMARK    7  A    between atoms: C_19  and  C_20 
REMARK    8  A    between atoms: C_20  and  C_23 
ROOT
HETATM    1  O   UNL     1     128.629 -59.559   1.597  1.00  0.00    -0.313 OA
HETATM    2  O   UNL     1     129.903 -60.200  -0.221  1.00  0.00    -0.259 OA
HETATM    3  C   UNL     1     128.736 -57.299   1.305  1.00  0.00    -0.006 A 
HETATM    4  C   UNL     1     130.007 -55.808  -0.633  1.00  0.00     0.013 A 
HETATM    5  C   UNL     1     129.455 -57.907   0.296  1.00  0.00     0.082 A 
HETATM    6  C   UNL     1     128.638 -55.921   1.365  1.00  0.00    -0.018 A 
HETATM    7  C   UNL     1     129.284 -55.168   0.379  1.00  0.00     0.084 A 
HETATM    8  C   UNL     1     130.105 -57.192  -0.693  1.00  0.00     0.091 A 
HETATM    9  C   UNL     1     128.165 -58.323   2.197  1.00  0.00     0.219 A 
HETATM   10  C   UNL     1     129.390 -59.348   0.477  1.00  0.00     0.297 A 
HETATM   11  C   UNL     1     127.861 -55.260   2.452  1.00  0.00     0.052 C 
ENDROOT
BRANCH   4  12
HETATM   12  C   UNL     1     130.695 -54.974  -1.688  1.00  0.00     0.072 C 
BRANCH  12  13
HETATM   13  C   UNL     1     129.783 -53.934  -2.278  1.00  0.00    -0.020 C 
HETATM   14  C   UNL     1     128.744 -54.124  -3.114  1.00  0.00    -0.087 C 
HETATM   15  C   UNL     1     128.381 -55.514  -3.566  1.00  0.00     0.043 C 
BRANCH  14  16
HETATM   16  C   UNL     1     127.887 -53.019  -3.688  1.00  0.00     0.044 C 
BRANCH  16  17
HETATM   17  C   UNL     1     128.726 -51.883  -4.277  1.00  0.00     0.114 C 
BRANCH  17  18
HETATM   18  C   UNL     1     128.138 -50.527  -3.963  1.00  0.00     0.139 C 
HETATM   19  O   UNL     1     128.094 -49.576  -4.732  1.00  0.00    -0.650 OA
BRANCH  18  20
HETATM   20  O   UNL     1     127.647 -50.479  -2.697  1.00  0.00    -0.776 OA
HETATM   21  H   UNL     1     126.680 -50.317  -2.686  1.00  0.00     0.167 HD
ENDBRANCH  18  20
ENDBRANCH  17  18
ENDBRANCH  16  17
ENDBRANCH  14  16
ENDBRANCH  12  13
ENDBRANCH   4  12
BRANCH   7  22
HETATM   22  O   UNL     1     129.205 -53.805   0.410  1.00  0.00    -0.355 OA
HETATM   23  C   UNL     1     130.078 -53.130   1.310  1.00  0.00     0.210 C 
ENDBRANCH   7  22
BRANCH   8  24
HETATM   24  O   UNL     1     130.804 -57.816  -1.674  1.00  0.00    -0.359 OA
HETATM   25  H   UNL     1     130.326 -58.614  -1.955  1.00  0.00     0.217 HD
ENDBRANCH   8  24
TORSDOF 8
ENDMDL
MODEL 3
REMARK VINA RESULT:      -8.3      1.313      3.162
REMARK  8 active torsions:
REMARK  status: ('A' for Active; 'I' for Inactive)
REMARK    1  A    between atoms: O_2  and  C_11 
REMARK    2  A    between atoms: O_3  and  C_12 
REMARK    3  A    between atoms: O_5  and  C_23 
REMARK    4  A    between atoms: C_8  and  C_13 
REMARK    5  A    between atoms: C_13  and  C_16 
REMARK    6  A    between atoms: C_18  and  C_19 
REMARK    7  A    between atoms: C_19  and  C_20 
REMARK    8  A    between atoms: C_20  and  C_23 
ROOT
HETATM    1  O   UNL     1     127.962 -50.750  -3.838  1.00  0.00    -0.313 OA
HETATM    2  O   UNL     1     129.185 -52.549  -4.619  1.00  0.00    -0.259 OA
HETATM    3  C   UNL     1     128.022 -51.243  -1.611  1.00  0.00    -0.006 A 
HETATM    4  C   UNL     1     129.200 -53.350  -0.281  1.00  0.00     0.013 A 
HETATM    5  C   UNL     1     128.715 -52.221  -2.296  1.00  0.00     0.082 A 
HETATM    6  C   UNL     1     127.904 -51.301  -0.235  1.00  0.00    -0.018 A 
HETATM    7  C   UNL     1     128.504 -52.372   0.437  1.00  0.00     0.084 A 
HETATM    8  C   UNL     1     129.319 -53.291  -1.663  1.00  0.00     0.091 A 
HETATM    9  C   UNL     1     127.500 -50.245  -2.560  1.00  0.00     0.219 A 
HETATM   10  C   UNL     1     128.680 -51.912  -3.716  1.00  0.00     0.297 A 
HETATM   11  C   UNL     1     127.159 -50.246   0.510  1.00  0.00     0.052 C 
ENDROOT
BRANCH   4  12
HETATM   12  C   UNL     1     129.841 -54.496   0.467  1.00  0.00     0.072 C 
BRANCH  12  13
HETATM   13  C   UNL     1     128.824 -55.380   1.135  1.00  0.00    -0.020 C 
HETATM   14  C   UNL     1     128.599 -56.691   0.920  1.00  0.00    -0.087 C 
HETATM   15  C   UNL     1     129.419 -57.442  -0.096  1.00  0.00     0.043 C 
BRANCH  14  16
HETATM   16  C   UNL     1     127.534 -57.508   1.616  1.00  0.00     0.044 C 
BRANCH  16  17
HETATM   17  C   UNL     1     127.718 -57.525   3.135  1.00  0.00     0.114 C 
BRANCH  17  18
HETATM   18  C   UNL     1     128.085 -58.901   3.642  1.00  0.00     0.139 C 
HETATM   19  O   UNL     1     128.288 -59.196   4.811  1.00  0.00    -0.650 OA
BRANCH  18  20
HETATM   20  O   UNL     1     128.164 -59.800   2.626  1.00  0.00    -0.776 OA
HETATM   21  H   UNL     1     127.327 -60.299   2.513  1.00  0.00     0.167 HD
ENDBRANCH  18  20
ENDBRANCH  17  18
ENDBRANCH  16  17
ENDBRANCH  14  16
ENDBRANCH  12  13
ENDBRANCH   4  12
BRANCH   7  22
HETATM   22  O   UNL     1     128.406 -52.456   1.796  1.00  0.00    -0.355 OA
HETATM   23  C   UNL     1     129.445 -51.846   2.556  1.00  0.00     0.210 C 
ENDBRANCH   7  22
BRANCH   8  24
HETATM   24  O   UNL     1     129.994 -54.238  -2.362  1.00  0.00    -0.359 OA
HETATM   25  H   UNL     1     130.928 -53.980  -2.438  1.00  0.00     0.217 HD
ENDBRANCH   8  24
TORSDOF 8
ENDMDL
